#!/sbin/sh

#################
# Initialization
#################

umask 022

# Global vars
TMPDIR=/dev/tmp
PERSISTDIR=/sbin/.magisk/mirror/persist

rm -rf $TMPDIR 2>/dev/null
mkdir -p $TMPDIR

# echo before loading util_functions
ui_print() { echo "$1"; }

require_new_magisk() {
  ui_print "*******************************"
  ui_print " Please install Magisk v20.4+! "
  ui_print "*******************************"
  exit 1
}

##############
# Environment
##############

OUTFD=$2
ZIPFILE=$3

mount /data 2>/dev/null

# Load utility functions
[ -f /data/adb/magisk/util_functions.sh ] || require_new_magisk
. /data/adb/magisk/util_functions.sh
[ $MAGISK_VER_CODE -lt 20400 ] && require_new_magisk

# Prep flash
setup_flashable

# Mount partitions
mount_partitions

# Detect version and architecture
api_level_arch_detect

# Setup busybox and binaries
$BOOTMODE && boot_actions || recovery_actions

##############
# Preparation
##############

# Extract prop file
unzip -o "$ZIPFILE" module.prop -d $TMPDIR >&2
[ ! -f $TMPDIR/module.prop ] && abort "! Unable to extract zip file!"

$BOOTMODE && MODDIRNAME=modules_update || MODDIRNAME=modules
MODULEROOT=$NVBASE/$MODDIRNAME
MODID=`grep_prop id $TMPDIR/module.prop`
MODPATH=$MODULEROOT/$MODID
MODNAME=`grep_prop name $TMPDIR/module.prop`

# Create mod paths
rm -rf $MODPATH 2>/dev/null
mkdir -p $MODPATH

##########
# Install
##########

# Extract customize.sh
unzip -o "$ZIPFILE" customize.sh -d $MODPATH >&2

# Run customize.sh
[ -f $MODPATH/customize.sh ] && . $MODPATH/customize.sh

# Handle replace folders
for TARGET in $REPLACE; do
  ui_print "- Replace target: $TARGET"
  mktouch $MODPATH$TARGET/.replace
done

# Auto-mount
$SKIPMOUNT && touch $MODPATH/skip_mount

# prop file
$PROPFILE && cp -af $TMPDIR/module.prop $MODPATH/module.prop

# Module info
cp -af $TMPDIR/module.prop $MODPATH/module.prop

# post-fs-data mode scripts
$POSTFSDATA && cp -af $TMPDIR/post-fs-data.sh $MODPATH/post-fs-data.sh

# service mode scripts
$LATESTARTSERVICE && cp -af $TMPDIR/service.sh $MODPATH/service.sh

# Handle custom installation
. $MODPATH/customize.sh

ui_print "- Setting permissions"
set_permissions

##############
# Finalizing
##############

cd /
$BOOTMODE || recovery_cleanup
rm -rf $TMPDIR

ui_print "- Done"
exit 0


